13
Coordinates from ORCA-job p-fluorophenol_opt_orca
  C   0.53468883028477     -1.12076655819145      0.05351036987367
  C   -0.79097667760979     -1.16153100863492      0.51469197295332
  C   -1.54775210653178      0.01566093289315      0.52507900687386
  C   -1.00421577579017      1.23032565715362      0.08339643964461
  C   0.31863782958070      1.26754213681815     -0.37600970123378
  C   1.09840231493924      0.09175405597308     -0.39438417177910
  O   2.38131631965420      0.18875857599483     -0.85255456488707
  F   -2.82417207199759     -0.01875953505715      0.96862154348499
  H   1.13712692976996     -2.04423443148640      0.04250556988370
  H   -1.24283940021485     -2.10004521223660      0.86670448498129
  H   -1.62483932543549      2.13785146298069      0.10400998912367
  H   0.76929002433391      2.20684747777471     -0.72763225119465
  H   2.79523310901689     -0.69330355398170     -0.80793868772451
